ptech18/manchester_models/network_3/Feeder_1/Loads_snap_g.txt
New Generator.LOAD1 Phases=1 Bus1=66.1 kV=0.23 kW=1 PF=1.00 !Daily=Shape_1
New Generator.LOAD2 Phases=1 Bus1=72.3 kV=0.23 kW=1 PF=1.00 !Daily=Shape_2
New Generator.LOAD3 Phases=1 Bus1=82.1 kV=0.23 kW=1 PF=1.00 !Daily=Shape_3
New Generator.LOAD4 Phases=1 Bus1=88.1 kV=0.23 kW=1 PF=1.00 !Daily=Shape_4
New Generator.LOAD5 Phases=1 Bus1=94.1 kV=0.23 kW=1 PF=1.00 !Daily=Shape_5
New Generator.LOAD6 Phases=1 Bus1=100.2 kV=0.23 kW=1 PF=1.00 !Daily=Shape_6
New Generator.LOAD7 Phases=1 Bus1=113.1 kV=0.23 kW=1 PF=1.00 !Daily=Shape_7
New Generator.LOAD8 Phases=1 Bus1=120.3 kV=0.23 kW=1 PF=1.00 !Daily=Shape_8
New Generator.LOAD9 Phases=1 Bus1=137.2 kV=0.23 kW=1 PF=1.00 !Daily=Shape_9
New Generator.LOAD10 Phases=1 Bus1=166.3 kV=0.23 kW=1 PF=1.00 !Daily=Shape_10
New Generator.LOAD11 Phases=1 Bus1=185.3 kV=0.23 kW=1 PF=1.00 !Daily=Shape_11
New Generator.LOAD12 Phases=1 Bus1=193.1 kV=0.23 kW=1 PF=1.00 !Daily=Shape_12
New Generator.LOAD13 Phases=1 Bus1=194.1 kV=0.23 kW=1 PF=1.00 !Daily=Shape_13
New Generator.LOAD14 Phases=1 Bus1=202.2 kV=0.23 kW=1 PF=1.00 !Daily=Shape_14
New Generator.LOAD15 Phases=1 Bus1=215.3 kV=0.23 kW=1 PF=1.00 !Daily=Shape_15
New Generator.LOAD16 Phases=1 Bus1=247.1 kV=0.23 kW=1 PF=1.00 !Daily=Shape_16
New Generator.LOAD17 Phases=1 Bus1=249.1 kV=0.23 kW=1 PF=1.00 !Daily=Shape_17
New Generator.LOAD18 Phases=1 Bus1=260.2 kV=0.23 kW=1 PF=1.00 !Daily=Shape_18
New Generator.LOAD19 Phases=1 Bus1=261.2 kV=0.23 kW=1 PF=1.00 !Daily=Shape_19
New Generator.LOAD20 Phases=1 Bus1=266.2 kV=0.23 kW=1 PF=1.00 !Daily=Shape_20
New Generator.LOAD21 Phases=1 Bus1=286.3 kV=0.23 kW=1 PF=1.00 !Daily=Shape_21
New Generator.LOAD22 Phases=1 Bus1=295.3 kV=0.23 kW=1 PF=1.00 !Daily=Shape_22
New Generator.LOAD23 Phases=1 Bus1=296.3 kV=0.23 kW=1 PF=1.00 !Daily=Shape_23
New Generator.LOAD24 Phases=1 Bus1=334.1 kV=0.23 kW=1 PF=1.00 !Daily=Shape_24
New Generator.LOAD25 Phases=1 Bus1=335.1 kV=0.23 kW=1 PF=1.00 !Daily=Shape_25
New Generator.LOAD26 Phases=1 Bus1=339.3 kV=0.23 kW=1 PF=1.00 !Daily=Shape_26
New Generator.LOAD27 Phases=1 Bus1=362.1 kV=0.23 kW=1 PF=1.00 !Daily=Shape_27
New Generator.LOAD28 Phases=1 Bus1=363.1 kV=0.23 kW=1 PF=1.00 !Daily=Shape_28
New Generator.LOAD29 Phases=1 Bus1=382.2 kV=0.23 kW=1 PF=1.00 !Daily=Shape_29
New Generator.LOAD30 Phases=1 Bus1=384.3 kV=0.23 kW=1 PF=1.00 !Daily=Shape_30
New Generator.LOAD31 Phases=1 Bus1=392.1 kV=0.23 kW=1 PF=1.00 !Daily=Shape_31
New Generator.LOAD32 Phases=1 Bus1=398.1 kV=0.23 kW=1 PF=1.00 !Daily=Shape_32
New Generator.LOAD33 Phases=1 Bus1=399.1 kV=0.23 kW=1 PF=1.00 !Daily=Shape_33
New Generator.LOAD34 Phases=1 Bus1=400.2 kV=0.23 kW=1 PF=1.00 !Daily=Shape_34
New Generator.LOAD35 Phases=1 Bus1=417.3 kV=0.23 kW=1 PF=1.00 !Daily=Shape_35
New Generator.LOAD36 Phases=1 Bus1=420.2 kV=0.23 kW=1 PF=1.00 !Daily=Shape_36
New Generator.LOAD37 Phases=1 Bus1=421.2 kV=0.23 kW=1 PF=1.00 !Daily=Shape_37
New Generator.LOAD38 Phases=1 Bus1=433.1 kV=0.23 kW=1 PF=1.00 !Daily=Shape_38
New Generator.LOAD39 Phases=1 Bus1=449.3 kV=0.23 kW=1 PF=1.00 !Daily=Shape_39
New Generator.LOAD40 Phases=1 Bus1=470.3 kV=0.23 kW=1 PF=1.00 !Daily=Shape_40
New Generator.LOAD41 Phases=1 Bus1=484.3 kV=0.23 kW=1 PF=1.00 !Daily=Shape_41
New Generator.LOAD42 Phases=1 Bus1=485.3 kV=0.23 kW=1 PF=1.00 !Daily=Shape_42
New Generator.LOAD43 Phases=1 Bus1=498.1 kV=0.23 kW=1 PF=1.00 !Daily=Shape_43
New Generator.LOAD44 Phases=1 Bus1=499.1 kV=0.23 kW=1 PF=1.00 !Daily=Shape_44
New Generator.LOAD45 Phases=1 Bus1=537.3 kV=0.23 kW=1 PF=1.00 !Daily=Shape_45
New Generator.LOAD46 Phases=1 Bus1=547.1 kV=0.23 kW=1 PF=1.00 !Daily=Shape_46
New Generator.LOAD47 Phases=1 Bus1=570.2 kV=0.23 kW=1 PF=1.00 !Daily=Shape_47
New Generator.LOAD48 Phases=1 Bus1=589.1 kV=0.23 kW=1 PF=1.00 !Daily=Shape_48
New Generator.LOAD49 Phases=1 Bus1=593.2 kV=0.23 kW=1 PF=1.00 !Daily=Shape_49
New Generator.LOAD50 Phases=1 Bus1=613.2 kV=0.23 kW=1 PF=1.00 !Daily=Shape_50
New Generator.LOAD51 Phases=1 Bus1=624.1 kV=0.23 kW=1 PF=1.00 !Daily=Shape_51
New Generator.LOAD52 Phases=1 Bus1=659.3 kV=0.23 kW=1 PF=1.00 !Daily=Shape_52
New Generator.LOAD53 Phases=1 Bus1=683.3 kV=0.23 kW=1 PF=1.00 !Daily=Shape_53
New Generator.LOAD54 Phases=1 Bus1=687.2 kV=0.23 kW=1 PF=1.00 !Daily=Shape_54
New Generator.LOAD55 Phases=1 Bus1=693.3 kV=0.23 kW=1 PF=1.00 !Daily=Shape_55
New Generator.LOAD56 Phases=1 Bus1=694.1 kV=0.23 kW=1 PF=1.00 !Daily=Shape_56
New Generator.LOAD57 Phases=1 Bus1=713.1 kV=0.23 kW=1 PF=1.00 !Daily=Shape_57
New Generator.LOAD58 Phases=1 Bus1=722.1 kV=0.23 kW=1 PF=1.00 !Daily=Shape_58
New Generator.LOAD59 Phases=1 Bus1=740.2 kV=0.23 kW=1 PF=1.00 !Daily=Shape_59
New Generator.LOAD60 Phases=1 Bus1=742.1 kV=0.23 kW=1 PF=1.00 !Daily=Shape_60
New Generator.LOAD61 Phases=1 Bus1=760.2 kV=0.23 kW=1 PF=1.00 !Daily=Shape_61
New Generator.LOAD62 Phases=1 Bus1=772.2 kV=0.23 kW=1 PF=1.00 !Daily=Shape_62
New Generator.LOAD63 Phases=1 Bus1=797.3 kV=0.23 kW=1 PF=1.00 !Daily=Shape_63
New Generator.LOAD64 Phases=1 Bus1=813.1 kV=0.23 kW=1 PF=1.00 !Daily=Shape_64
New Generator.LOAD65 Phases=1 Bus1=815.3 kV=0.23 kW=1 PF=1.00 !Daily=Shape_65
New Generator.LOAD66 Phases=1 Bus1=834.1 kV=0.23 kW=1 PF=1.00 !Daily=Shape_66
New Generator.LOAD67 Phases=1 Bus1=852.2 kV=0.23 kW=1 PF=1.00 !Daily=Shape_67
New Generator.LOAD68 Phases=1 Bus1=884.2 kV=0.23 kW=1 PF=1.00 !Daily=Shape_68
New Generator.LOAD69 Phases=1 Bus1=903.2 kV=0.23 kW=1 PF=1.00 !Daily=Shape_69
New Generator.LOAD70 Phases=1 Bus1=904.3 kV=0.23 kW=1 PF=1.00 !Daily=Shape_70
New Generator.LOAD71 Phases=1 Bus1=929.3 kV=0.23 kW=1 PF=1.00 !Daily=Shape_71
New Generator.LOAD72 Phases=1 Bus1=936.1 kV=0.23 kW=1 PF=1.00 !Daily=Shape_72
New Generator.LOAD73 Phases=1 Bus1=937.1 kV=0.23 kW=1 PF=1.00 !Daily=Shape_73
New Generator.LOAD74 Phases=1 Bus1=952.3 kV=0.23 kW=1 PF=1.00 !Daily=Shape_74
New Generator.LOAD75 Phases=1 Bus1=966.2 kV=0.23 kW=1 PF=1.00 !Daily=Shape_75
New Generator.LOAD76 Phases=1 Bus1=989.3 kV=0.23 kW=1 PF=1.00 !Daily=Shape_76
New Generator.LOAD77 Phases=1 Bus1=995.1 kV=0.23 kW=1 PF=1.00 !Daily=Shape_77
New Generator.LOAD78 Phases=1 Bus1=1010.2 kV=0.23 kW=1 PF=1.00 !Daily=Shape_78
New Generator.LOAD79 Phases=1 Bus1=1018.3 kV=0.23 kW=1 PF=1.00 !Daily=Shape_79
New Generator.LOAD80 Phases=1 Bus1=1019.1 kV=0.23 kW=1 PF=1.00 !Daily=Shape_80
New Generator.LOAD81 Phases=1 Bus1=1027.1 kV=0.23 kW=1 PF=1.00 !Daily=Shape_81
New Generator.LOAD82 Phases=1 Bus1=1044.1 kV=0.23 kW=1 PF=1.00 !Daily=Shape_82
New Generator.LOAD83 Phases=1 Bus1=1049.2 kV=0.23 kW=1 PF=1.00 !Daily=Shape_83
New Generator.LOAD84 Phases=1 Bus1=1065.3 kV=0.23 kW=1 PF=1.00 !Daily=Shape_84
New Generator.LOAD85 Phases=1 Bus1=1076.1 kV=0.23 kW=1 PF=1.00 !Daily=Shape_85
New Generator.LOAD86 Phases=1 Bus1=1090.2 kV=0.23 kW=1 PF=1.00 !Daily=Shape_86
New Generator.LOAD87 Phases=1 Bus1=1091.3 kV=0.23 kW=1 PF=1.00 !Daily=Shape_87
New Generator.LOAD88 Phases=1 Bus1=1094.3 kV=0.23 kW=1 PF=1.00 !Daily=Shape_88
New Generator.LOAD89 Phases=1 Bus1=1101.1 kV=0.23 kW=1 PF=1.00 !Daily=Shape_89
New Generator.LOAD90 Phases=1 Bus1=1124.2 kV=0.23 kW=1 PF=1.00 !Daily=Shape_90
New Generator.LOAD91 Phases=1 Bus1=1130.3 kV=0.23 kW=1 PF=1.00 !Daily=Shape_91
New Generator.LOAD92 Phases=1 Bus1=1146.3 kV=0.23 kW=1 PF=1.00 !Daily=Shape_92
New Generator.LOAD93 Phases=1 Bus1=1187.1 kV=0.23 kW=1 PF=1.00 !Daily=Shape_93
New Generator.LOAD94 Phases=1 Bus1=1188.1 kV=0.23 kW=1 PF=1.00 !Daily=Shape_94

New Load.LOAD1 Phases=1 Bus1=66.1 kV=0.23 kW=1 PF=0.95 !Daily=Shape_1
New Load.LOAD2 Phases=1 Bus1=72.3 kV=0.23 kW=1 PF=0.95 !Daily=Shape_2
New Load.LOAD3 Phases=1 Bus1=82.1 kV=0.23 kW=1 PF=0.95 !Daily=Shape_3
New Load.LOAD4 Phases=1 Bus1=88.1 kV=0.23 kW=1 PF=0.95 !Daily=Shape_4
New Load.LOAD5 Phases=1 Bus1=94.1 kV=0.23 kW=1 PF=0.95 !Daily=Shape_5
New Load.LOAD6 Phases=1 Bus1=100.2 kV=0.23 kW=1 PF=0.95 !Daily=Shape_6
New Load.LOAD7 Phases=1 Bus1=113.1 kV=0.23 kW=1 PF=0.95 !Daily=Shape_7
New Load.LOAD8 Phases=1 Bus1=120.3 kV=0.23 kW=1 PF=0.95 !Daily=Shape_8
New Load.LOAD9 Phases=1 Bus1=137.2 kV=0.23 kW=1 PF=0.95 !Daily=Shape_9
New Load.LOAD10 Phases=1 Bus1=166.3 kV=0.23 kW=1 PF=0.95 !Daily=Shape_10
New Load.LOAD11 Phases=1 Bus1=185.3 kV=0.23 kW=1 PF=0.95 !Daily=Shape_11
New Load.LOAD12 Phases=1 Bus1=193.1 kV=0.23 kW=1 PF=0.95 !Daily=Shape_12
New Load.LOAD13 Phases=1 Bus1=194.1 kV=0.23 kW=1 PF=0.95 !Daily=Shape_13
New Load.LOAD14 Phases=1 Bus1=202.2 kV=0.23 kW=1 PF=0.95 !Daily=Shape_14
New Load.LOAD15 Phases=1 Bus1=215.3 kV=0.23 kW=1 PF=0.95 !Daily=Shape_15
New Load.LOAD16 Phases=1 Bus1=247.1 kV=0.23 kW=1 PF=0.95 !Daily=Shape_16
New Load.LOAD17 Phases=1 Bus1=249.1 kV=0.23 kW=1 PF=0.95 !Daily=Shape_17
New Load.LOAD18 Phases=1 Bus1=260.2 kV=0.23 kW=1 PF=0.95 !Daily=Shape_18
New Load.LOAD19 Phases=1 Bus1=261.2 kV=0.23 kW=1 PF=0.95 !Daily=Shape_19
New Load.LOAD20 Phases=1 Bus1=266.2 kV=0.23 kW=1 PF=0.95 !Daily=Shape_20
New Load.LOAD21 Phases=1 Bus1=286.3 kV=0.23 kW=1 PF=0.95 !Daily=Shape_21
New Load.LOAD22 Phases=1 Bus1=295.3 kV=0.23 kW=1 PF=0.95 !Daily=Shape_22
New Load.LOAD23 Phases=1 Bus1=296.3 kV=0.23 kW=1 PF=0.95 !Daily=Shape_23
New Load.LOAD24 Phases=1 Bus1=334.1 kV=0.23 kW=1 PF=0.95 !Daily=Shape_24
New Load.LOAD25 Phases=1 Bus1=335.1 kV=0.23 kW=1 PF=0.95 !Daily=Shape_25
New Load.LOAD26 Phases=1 Bus1=339.3 kV=0.23 kW=1 PF=0.95 !Daily=Shape_26
New Load.LOAD27 Phases=1 Bus1=362.1 kV=0.23 kW=1 PF=0.95 !Daily=Shape_27
New Load.LOAD28 Phases=1 Bus1=363.1 kV=0.23 kW=1 PF=0.95 !Daily=Shape_28
New Load.LOAD29 Phases=1 Bus1=382.2 kV=0.23 kW=1 PF=0.95 !Daily=Shape_29
New Load.LOAD30 Phases=1 Bus1=384.3 kV=0.23 kW=1 PF=0.95 !Daily=Shape_30
New Load.LOAD31 Phases=1 Bus1=392.1 kV=0.23 kW=1 PF=0.95 !Daily=Shape_31
New Load.LOAD32 Phases=1 Bus1=398.1 kV=0.23 kW=1 PF=0.95 !Daily=Shape_32
New Load.LOAD33 Phases=1 Bus1=399.1 kV=0.23 kW=1 PF=0.95 !Daily=Shape_33
New Load.LOAD34 Phases=1 Bus1=400.2 kV=0.23 kW=1 PF=0.95 !Daily=Shape_34
New Load.LOAD35 Phases=1 Bus1=417.3 kV=0.23 kW=1 PF=0.95 !Daily=Shape_35
New Load.LOAD36 Phases=1 Bus1=420.2 kV=0.23 kW=1 PF=0.95 !Daily=Shape_36
New Load.LOAD37 Phases=1 Bus1=421.2 kV=0.23 kW=1 PF=0.95 !Daily=Shape_37
New Load.LOAD38 Phases=1 Bus1=433.1 kV=0.23 kW=1 PF=0.95 !Daily=Shape_38
New Load.LOAD39 Phases=1 Bus1=449.3 kV=0.23 kW=1 PF=0.95 !Daily=Shape_39
New Load.LOAD40 Phases=1 Bus1=470.3 kV=0.23 kW=1 PF=0.95 !Daily=Shape_40
New Load.LOAD41 Phases=1 Bus1=484.3 kV=0.23 kW=1 PF=0.95 !Daily=Shape_41
New Load.LOAD42 Phases=1 Bus1=485.3 kV=0.23 kW=1 PF=0.95 !Daily=Shape_42
New Load.LOAD43 Phases=1 Bus1=498.1 kV=0.23 kW=1 PF=0.95 !Daily=Shape_43
New Load.LOAD44 Phases=1 Bus1=499.1 kV=0.23 kW=1 PF=0.95 !Daily=Shape_44
New Load.LOAD45 Phases=1 Bus1=537.3 kV=0.23 kW=1 PF=0.95 !Daily=Shape_45
New Load.LOAD46 Phases=1 Bus1=547.1 kV=0.23 kW=1 PF=0.95 !Daily=Shape_46
New Load.LOAD47 Phases=1 Bus1=570.2 kV=0.23 kW=1 PF=0.95 !Daily=Shape_47
New Load.LOAD48 Phases=1 Bus1=589.1 kV=0.23 kW=1 PF=0.95 !Daily=Shape_48
New Load.LOAD49 Phases=1 Bus1=593.2 kV=0.23 kW=1 PF=0.95 !Daily=Shape_49
New Load.LOAD50 Phases=1 Bus1=613.2 kV=0.23 kW=1 PF=0.95 !Daily=Shape_50
New Load.LOAD51 Phases=1 Bus1=624.1 kV=0.23 kW=1 PF=0.95 !Daily=Shape_51
New Load.LOAD52 Phases=1 Bus1=659.3 kV=0.23 kW=1 PF=0.95 !Daily=Shape_52
New Load.LOAD53 Phases=1 Bus1=683.3 kV=0.23 kW=1 PF=0.95 !Daily=Shape_53
New Load.LOAD54 Phases=1 Bus1=687.2 kV=0.23 kW=1 PF=0.95 !Daily=Shape_54
New Load.LOAD55 Phases=1 Bus1=693.3 kV=0.23 kW=1 PF=0.95 !Daily=Shape_55
New Load.LOAD56 Phases=1 Bus1=694.1 kV=0.23 kW=1 PF=0.95 !Daily=Shape_56
New Load.LOAD57 Phases=1 Bus1=713.1 kV=0.23 kW=1 PF=0.95 !Daily=Shape_57
New Load.LOAD58 Phases=1 Bus1=722.1 kV=0.23 kW=1 PF=0.95 !Daily=Shape_58
New Load.LOAD59 Phases=1 Bus1=740.2 kV=0.23 kW=1 PF=0.95 !Daily=Shape_59
New Load.LOAD60 Phases=1 Bus1=742.1 kV=0.23 kW=1 PF=0.95 !Daily=Shape_60
New Load.LOAD61 Phases=1 Bus1=760.2 kV=0.23 kW=1 PF=0.95 !Daily=Shape_61
New Load.LOAD62 Phases=1 Bus1=772.2 kV=0.23 kW=1 PF=0.95 !Daily=Shape_62
New Load.LOAD63 Phases=1 Bus1=797.3 kV=0.23 kW=1 PF=0.95 !Daily=Shape_63
New Load.LOAD64 Phases=1 Bus1=813.1 kV=0.23 kW=1 PF=0.95 !Daily=Shape_64
New Load.LOAD65 Phases=1 Bus1=815.3 kV=0.23 kW=1 PF=0.95 !Daily=Shape_65
New Load.LOAD66 Phases=1 Bus1=834.1 kV=0.23 kW=1 PF=0.95 !Daily=Shape_66
New Load.LOAD67 Phases=1 Bus1=852.2 kV=0.23 kW=1 PF=0.95 !Daily=Shape_67
New Load.LOAD68 Phases=1 Bus1=884.2 kV=0.23 kW=1 PF=0.95 !Daily=Shape_68
New Load.LOAD69 Phases=1 Bus1=903.2 kV=0.23 kW=1 PF=0.95 !Daily=Shape_69
New Load.LOAD70 Phases=1 Bus1=904.3 kV=0.23 kW=1 PF=0.95 !Daily=Shape_70
New Load.LOAD71 Phases=1 Bus1=929.3 kV=0.23 kW=1 PF=0.95 !Daily=Shape_71
New Load.LOAD72 Phases=1 Bus1=936.1 kV=0.23 kW=1 PF=0.95 !Daily=Shape_72
New Load.LOAD73 Phases=1 Bus1=937.1 kV=0.23 kW=1 PF=0.95 !Daily=Shape_73
New Load.LOAD74 Phases=1 Bus1=952.3 kV=0.23 kW=1 PF=0.95 !Daily=Shape_74
New Load.LOAD75 Phases=1 Bus1=966.2 kV=0.23 kW=1 PF=0.95 !Daily=Shape_75
New Load.LOAD76 Phases=1 Bus1=989.3 kV=0.23 kW=1 PF=0.95 !Daily=Shape_76
New Load.LOAD77 Phases=1 Bus1=995.1 kV=0.23 kW=1 PF=0.95 !Daily=Shape_77
New Load.LOAD78 Phases=1 Bus1=1010.2 kV=0.23 kW=1 PF=0.95 !Daily=Shape_78
New Load.LOAD79 Phases=1 Bus1=1018.3 kV=0.23 kW=1 PF=0.95 !Daily=Shape_79
New Load.LOAD80 Phases=1 Bus1=1019.1 kV=0.23 kW=1 PF=0.95 !Daily=Shape_80
New Load.LOAD81 Phases=1 Bus1=1027.1 kV=0.23 kW=1 PF=0.95 !Daily=Shape_81
New Load.LOAD82 Phases=1 Bus1=1044.1 kV=0.23 kW=1 PF=0.95 !Daily=Shape_82
New Load.LOAD83 Phases=1 Bus1=1049.2 kV=0.23 kW=1 PF=0.95 !Daily=Shape_83
New Load.LOAD84 Phases=1 Bus1=1065.3 kV=0.23 kW=1 PF=0.95 !Daily=Shape_84
New Load.LOAD85 Phases=1 Bus1=1076.1 kV=0.23 kW=1 PF=0.95 !Daily=Shape_85
New Load.LOAD86 Phases=1 Bus1=1090.2 kV=0.23 kW=1 PF=0.95 !Daily=Shape_86
New Load.LOAD87 Phases=1 Bus1=1091.3 kV=0.23 kW=1 PF=0.95 !Daily=Shape_87
New Load.LOAD88 Phases=1 Bus1=1094.3 kV=0.23 kW=1 PF=0.95 !Daily=Shape_88
New Load.LOAD89 Phases=1 Bus1=1101.1 kV=0.23 kW=1 PF=0.95 !Daily=Shape_89
New Load.LOAD90 Phases=1 Bus1=1124.2 kV=0.23 kW=1 PF=0.95 !Daily=Shape_90
New Load.LOAD91 Phases=1 Bus1=1130.3 kV=0.23 kW=1 PF=0.95 !Daily=Shape_91
New Load.LOAD92 Phases=1 Bus1=1146.3 kV=0.23 kW=1 PF=0.95 !Daily=Shape_92
New Load.LOAD93 Phases=1 Bus1=1187.1 kV=0.23 kW=1 PF=0.95 !Daily=Shape_93
New Load.LOAD94 Phases=1 Bus1=1188.1 kV=0.23 kW=1 PF=0.95 !Daily=Shape_94
